<?xml version="1.0" encoding="UTF-8"?>

<!-- generated on 2025-12-18 00:37:06 by Eclipse SUMO netedit Version 1.24.0
<neteditConfiguration xmlns:xsi="http://www.w3.org/2001/XMLSchema-instance" xsi:noNamespaceSchemaLocation="http://sumo.dlr.de/xsd/neteditConfiguration.xsd">

    <input>
        <sumo-net-file value="C:\Users\ASUS\Desktop\MTECH\SET PROJECT\Project\Sumo files\net.net.xml"/>
    </input>

    <output>
        <output-file value="C:\Users\ASUS\Desktop\MTECH\SET PROJECT\Project\Sumo files\net.net.xml"/>
    </output>

    <processing>
        <geometry.min-radius.fix.railways value="false"/>
        <geometry.avoid-overlap value="false"/>
        <geometry.max-grade.fix value="false"/>
        <offset.disable-normalization value="true"/>
        <lefthand value="0"/>
    </processing>

    <junctions>
        <no-turnarounds value="true"/>
        <junctions.corner-detail value="5"/>
        <junctions.limit-turn-speed value="5.50"/>
        <rectangular-lane-cut value="0"/>
    </junctions>

    <pedestrian>
        <walkingareas value="0"/>
    </pedestrian>

</neteditConfiguration>
-->

<net version="1.20" junctionCornerDetail="5" limitTurnSpeed="5.50" avoidOverlap="0" xmlns:xsi="http://www.w3.org/2001/XMLSchema-instance" xsi:noNamespaceSchemaLocation="http://sumo.dlr.de/xsd/net_file.xsd">

    <location netOffset="0.00,0.00" convBoundary="-50.42,-32.05,34.36,40.13" origBoundary="-10000000000.00,-10000000000.00,10000000000.00,10000000000.00" projParameter="!"/>

    <edge id=":n_center_0" function="internal">
        <lane id=":n_center_0_0" index="0" speed="6.64" length="9.29" shape="-2.26,5.29 -4.76,5.63 -6.58,6.69 -7.70,8.48 -8.13,11.00"/>
    </edge>
    <edge id=":n_center_1" function="internal">
        <lane id=":n_center_1_0" index="0" speed="13.89" length="14.56" shape="-2.26,5.29 -16.82,5.29"/>
    </edge>
    <edge id=":n_center_2" function="internal">
        <lane id=":n_center_2_0" index="0" speed="7.97" length="4.02" shape="-2.26,5.29 -6.14,4.70 -6.22,4.65"/>
    </edge>
    <edge id=":n_center_12" function="internal">
        <lane id=":n_center_12_0" index="0" speed="7.97" length="10.24" shape="-6.22,4.65 -8.87,3.01 -10.46,0.22 -10.92,-3.67"/>
    </edge>
    <edge id=":n_center_3" function="internal">
        <lane id=":n_center_3_0" index="0" speed="6.47" length="9.03" shape="-7.72,-3.59 -7.43,-1.12 -6.42,0.65 -4.69,1.72 -2.24,2.09"/>
    </edge>
    <edge id=":n_center_4" function="internal">
        <lane id=":n_center_4_0" index="0" speed="13.89" length="14.59" shape="-7.72,-3.59 -8.13,11.00"/>
    </edge>
    <edge id=":n_center_5" function="internal">
        <lane id=":n_center_5_0" index="0" speed="8.16" length="4.10" shape="-7.72,-3.59 -8.37,0.27 -8.47,0.43"/>
    </edge>
    <edge id=":n_center_13" function="internal">
        <lane id=":n_center_13_0" index="0" speed="8.16" length="10.29" shape="-8.47,0.43 -10.11,3.04 -12.93,4.71 -16.82,5.29"/>
    </edge>
    <edge id=":n_center_6" function="internal">
        <lane id=":n_center_6_0" index="0" speed="6.69" length="9.36" shape="-16.85,2.09 -14.31,1.71 -12.47,0.63 -11.34,-1.17 -10.92,-3.67"/>
    </edge>
    <edge id=":n_center_7" function="internal">
        <lane id=":n_center_7_0" index="0" speed="13.89" length="14.61" shape="-16.85,2.09 -2.24,2.09"/>
    </edge>
    <edge id=":n_center_8" function="internal">
        <lane id=":n_center_8_0" index="0" speed="7.93" length="4.16" shape="-16.85,2.09 -12.93,2.62 -12.75,2.73"/>
    </edge>
    <edge id=":n_center_14" function="internal">
        <lane id=":n_center_14_0" index="0" speed="7.93" length="10.18" shape="-12.75,2.73 -10.17,4.28 -8.57,7.07 -8.13,11.00"/>
    </edge>
    <edge id=":n_center_9" function="internal">
        <lane id=":n_center_9_0" index="0" speed="6.43" length="9.03" shape="-11.32,10.90 -11.61,8.43 -12.61,6.67 -14.35,5.63 -16.82,5.29"/>
    </edge>
    <edge id=":n_center_10" function="internal">
        <lane id=":n_center_10_0" index="0" speed="13.89" length="14.58" shape="-11.32,10.90 -10.92,-3.67"/>
    </edge>
    <edge id=":n_center_11" function="internal">
        <lane id=":n_center_11_0" index="0" speed="8.11" length="4.11" shape="-11.32,10.90 -10.66,7.02 -10.57,6.88"/>
    </edge>
    <edge id=":n_center_15" function="internal">
        <lane id=":n_center_15_0" index="0" speed="8.11" length="10.26" shape="-10.57,6.88 -8.92,4.26 -6.11,2.61 -2.24,2.09"/>
    </edge>

    <edge id="center_to_east" from="n_center" to="n_east" priority="-1">
        <lane id="center_to_east_0" index="0" speed="13.89" length="36.61" shape="-2.24,2.09 34.37,2.38"/>
    </edge>
    <edge id="center_to_north" from="n_center" to="n_north" priority="-1">
        <lane id="center_to_north_0" index="0" speed="13.89" length="29.19" shape="-8.13,11.00 -8.98,40.18"/>
    </edge>
    <edge id="center_to_south" from="n_center" to="n_south" priority="-1">
        <lane id="center_to_south_0" index="0" speed="13.89" length="28.43" shape="-10.92,-3.67 -10.16,-32.09"/>
    </edge>
    <edge id="center_to_west" from="n_center" to="n_west" priority="-1">
        <lane id="center_to_west_0" index="0" speed="13.89" length="33.59" shape="-16.82,5.29 -50.41,5.58"/>
    </edge>
    <edge id="east_to_center" from="n_east" to="n_center" priority="-1">
        <lane id="east_to_center_0" index="0" speed="13.89" length="36.61" shape="34.35,5.58 -2.26,5.29"/>
    </edge>
    <edge id="north_to_center" from="n_north" to="n_center" priority="-1">
        <lane id="north_to_center_0" index="0" speed="13.89" length="29.19" shape="-12.18,40.08 -11.32,10.90"/>
    </edge>
    <edge id="south_to_center" from="n_south" to="n_center" priority="-1">
        <lane id="south_to_center_0" index="0" speed="13.89" length="28.43" shape="-6.96,-32.01 -7.72,-3.59"/>
    </edge>
    <edge id="west_to_center" from="n_west" to="n_center" priority="-1">
        <lane id="west_to_center_0" index="0" speed="13.89" length="33.59" shape="-50.43,2.38 -16.85,2.09"/>
    </edge>

    <tlLogic id="n_center" type="static" programID="0" offset="0">
        <phase duration="42" state="rrrGGgrrrGGg"/>
        <phase duration="3"  state="rrryyyrrryyy"/>
        <phase duration="42" state="GGgrrrGGgrrr"/>
        <phase duration="3"  state="yyyrrryyyrrr"/>
    </tlLogic>

    <junction id="n_center" type="traffic_light" x="-9.51" y="3.63" incLanes="east_to_center_0 south_to_center_0 west_to_center_0 north_to_center_0" intLanes=":n_center_0_0 :n_center_1_0 :n_center_12_0 :n_center_3_0 :n_center_4_0 :n_center_13_0 :n_center_6_0 :n_center_7_0 :n_center_14_0 :n_center_9_0 :n_center_10_0 :n_center_15_0" shape="-2.28,6.89 -2.22,0.49 -4.43,0.03 -5.20,-0.54 -5.73,-1.32 -6.04,-2.32 -6.12,-3.54 -12.52,-3.71 -13.05,-1.39 -13.66,-0.58 -14.50,0.01 -15.56,0.37 -16.86,0.49 -16.81,6.89 -14.60,7.32 -13.84,7.87 -13.30,8.64 -13.00,9.64 -12.92,10.86 -6.53,11.04 -6.00,8.72 -5.40,7.91 -4.58,7.33 -3.54,6.99">
        <request index="0"  response="000000010000" foes="000100010000" cont="0"/>
        <request index="1"  response="111000110000" foes="111100110000" cont="0"/>
        <request index="2"  response="110111110000" foes="110111110000" cont="1"/>
        <request index="3"  response="000000000000" foes="100010000000" cont="0"/>
        <request index="4"  response="000100000100" foes="100110000111" cont="0"/>
        <request index="5"  response="011100000100" foes="111110000110" cont="1"/>
        <request index="6"  response="010000000000" foes="010000000100" cont="0"/>
        <request index="7"  response="110000111000" foes="110000111100" cont="0"/>
        <request index="8"  response="110000110011" foes="110000110111" cont="1"/>
        <request index="9"  response="000000000000" foes="000000100010" cont="0"/>
        <request index="10" response="000100000100" foes="000111100110" cont="0"/>
        <request index="11" response="000100111100" foes="000110111110" cont="1"/>
    </junction>
    <junction id="n_east" type="dead_end" x="34.36" y="3.98" incLanes="center_to_east_0" intLanes="" shape="34.36,3.98 34.39,0.78 34.36,3.98"/>
    <junction id="n_north" type="dead_end" x="-10.58" y="40.13" incLanes="center_to_north_0" intLanes="" shape="-10.58,40.13 -7.38,40.22 -10.58,40.13"/>
    <junction id="n_south" type="dead_end" x="-8.56" y="-32.05" incLanes="center_to_south_0" intLanes="" shape="-8.56,-32.05 -11.76,-32.14 -8.56,-32.05"/>
    <junction id="n_west" type="dead_end" x="-50.42" y="3.98" incLanes="center_to_west_0" intLanes="" shape="-50.42,3.98 -50.39,7.18 -50.42,3.98"/>

    <junction id=":n_center_12_0" type="internal" x="-6.22" y="4.65" incLanes=":n_center_2_0 west_to_center_0" intLanes=":n_center_4_0 :n_center_5_0 :n_center_6_0 :n_center_7_0 :n_center_10_0 :n_center_11_0"/>
    <junction id=":n_center_13_0" type="internal" x="-8.47" y="0.43" incLanes=":n_center_5_0 north_to_center_0" intLanes=":n_center_1_0 :n_center_2_0 :n_center_7_0 :n_center_8_0 :n_center_9_0 :n_center_10_0"/>
    <junction id=":n_center_14_0" type="internal" x="-12.75" y="2.73" incLanes=":n_center_8_0 east_to_center_0" intLanes=":n_center_0_0 :n_center_1_0 :n_center_4_0 :n_center_5_0 :n_center_10_0 :n_center_11_0"/>
    <junction id=":n_center_15_0" type="internal" x="-10.57" y="6.88" incLanes=":n_center_11_0 south_to_center_0" intLanes=":n_center_1_0 :n_center_2_0 :n_center_3_0 :n_center_4_0 :n_center_7_0 :n_center_8_0"/>

    <connection from="east_to_center" to="center_to_north" fromLane="0" toLane="0" via=":n_center_0_0" tl="n_center" linkIndex="0" dir="r" state="o"/>
    <connection from="east_to_center" to="center_to_west" fromLane="0" toLane="0" via=":n_center_1_0" tl="n_center" linkIndex="1" dir="s" state="o"/>
    <connection from="east_to_center" to="center_to_south" fromLane="0" toLane="0" via=":n_center_2_0" tl="n_center" linkIndex="2" dir="l" state="o"/>
    <connection from="north_to_center" to="center_to_west" fromLane="0" toLane="0" via=":n_center_9_0" tl="n_center" linkIndex="9" dir="r" state="O"/>
    <connection from="north_to_center" to="center_to_south" fromLane="0" toLane="0" via=":n_center_10_0" tl="n_center" linkIndex="10" dir="s" state="O"/>
    <connection from="north_to_center" to="center_to_east" fromLane="0" toLane="0" via=":n_center_11_0" tl="n_center" linkIndex="11" dir="l" state="o"/>
    <connection from="south_to_center" to="center_to_east" fromLane="0" toLane="0" via=":n_center_3_0" tl="n_center" linkIndex="3" dir="r" state="O"/>
    <connection from="south_to_center" to="center_to_north" fromLane="0" toLane="0" via=":n_center_4_0" tl="n_center" linkIndex="4" dir="s" state="O"/>
    <connection from="south_to_center" to="center_to_west" fromLane="0" toLane="0" via=":n_center_5_0" tl="n_center" linkIndex="5" dir="l" state="o"/>
    <connection from="west_to_center" to="center_to_south" fromLane="0" toLane="0" via=":n_center_6_0" tl="n_center" linkIndex="6" dir="r" state="o"/>
    <connection from="west_to_center" to="center_to_east" fromLane="0" toLane="0" via=":n_center_7_0" tl="n_center" linkIndex="7" dir="s" state="o"/>
    <connection from="west_to_center" to="center_to_north" fromLane="0" toLane="0" via=":n_center_8_0" tl="n_center" linkIndex="8" dir="l" state="o"/>

    <connection from=":n_center_0" to="center_to_north" fromLane="0" toLane="0" dir="r" state="M"/>
    <connection from=":n_center_1" to="center_to_west" fromLane="0" toLane="0" dir="s" state="M"/>
    <connection from=":n_center_2" to="center_to_south" fromLane="0" toLane="0" via=":n_center_12_0" dir="l" state="m"/>
    <connection from=":n_center_12" to="center_to_south" fromLane="0" toLane="0" dir="l" state="M"/>
    <connection from=":n_center_3" to="center_to_east" fromLane="0" toLane="0" dir="r" state="M"/>
    <connection from=":n_center_4" to="center_to_north" fromLane="0" toLane="0" dir="s" state="M"/>
    <connection from=":n_center_5" to="center_to_west" fromLane="0" toLane="0" via=":n_center_13_0" dir="l" state="m"/>
    <connection from=":n_center_13" to="center_to_west" fromLane="0" toLane="0" dir="l" state="M"/>
    <connection from=":n_center_6" to="center_to_south" fromLane="0" toLane="0" dir="r" state="M"/>
    <connection from=":n_center_7" to="center_to_east" fromLane="0" toLane="0" dir="s" state="M"/>
    <connection from=":n_center_8" to="center_to_north" fromLane="0" toLane="0" via=":n_center_14_0" dir="l" state="m"/>
    <connection from=":n_center_14" to="center_to_north" fromLane="0" toLane="0" dir="l" state="M"/>
    <connection from=":n_center_9" to="center_to_west" fromLane="0" toLane="0" dir="r" state="M"/>
    <connection from=":n_center_10" to="center_to_south" fromLane="0" toLane="0" dir="s" state="M"/>
    <connection from=":n_center_11" to="center_to_east" fromLane="0" toLane="0" via=":n_center_15_0" dir="l" state="m"/>
    <connection from=":n_center_15" to="center_to_east" fromLane="0" toLane="0" dir="l" state="M"/>

</net>
