<configuration>
    <input>
        <net-file value="net.net.xml"/>
        <route-files value="routes_india_normal.rou.xml"/>
    </input>

    <time>
        <begin value="0"/>
        <end value="3600"/>
    </time>

    <processing>
        <time-to-teleport value="-1"/>
    </processing>

    <gui_only>
        <start value="true"/>
    </gui_only>
</configuration>
